Circuit: * C:\Senior\403_project\New_Sim\SimB.asc

Error on line 9 : v§pressure pressure 0 v
	 Unknown parameter "v"
Error on line 10 : v§temperature temp 0 v
	 Unknown parameter "v"
WARNING: Less than two connections to node PRESSURE.  This node is used by V§PRESSURE.
WARNING: Less than two connections to node TEMP.  This node is used by V§TEMPERATURE.
Temperature: Missing value, assumed 0V @ DC
Pressure: Missing value, assumed 0V @ DC
.step p1=0
Direct Newton iteration for .op point succeeded.
.step p1=0.1
.step p1=0.2
.step p1=0.3
.step p1=0.4
.step p1=0.5
.step p1=0.6
.step p1=0.7
.step p1=0.8
.step p1=0.9
.step p1=1
.step p1=1.1
.step p1=1.2
.step p1=1.3
.step p1=1.4
.step p1=1.5
.step p1=1.6
.step p1=1.7
.step p1=1.8
.step p1=1.9
.step p1=2
.step p1=2.1
.step p1=2.2
.step p1=2.3
.step p1=2.4
.step p1=2.5
.step p1=2.6
.step p1=2.7
.step p1=2.8
.step p1=2.9
.step p1=3

Date: Mon Mar 04 20:06:45 2024
Total elapsed time: 1.518 seconds.

tnom = 27
temp = 27
method = trap
totiter = 3
traniter = 0
tranpoints = 0
accept = 0
rejected = 0
matrix size = 10
fillins = 0
solver = Normal
Matrix Compiler1: 336 bytes object code size
Matrix Compiler2: 584 bytes object code size
